/*---------------------------------------------------------------------------*\
| =========                 |                                                 |
| \\      /  F ield         | OpenFOAM: The Open Source CFD Toolbox           |
|  \\    /   O peration     | Version:  2412                                  |
|   \\  /    A nd           | Website:  www.openfoam.com                      |
|    \\/     M anipulation  |                                                 |
\*---------------------------------------------------------------------------*/
Build  : _f00230df-20250528 OPENFOAM=2412 patch=250528 version=2412
Arch   : "LSB;label=32;scalar=64"
Exec   : pimpleFoam
Date   : Feb 27 2026
Time   : 16:49:16
Host   : b88f22e4741b
PID    : 90080
I/O    : uncollated
Case   : /root/OpenFOAM/user-v2412/run/validationCase
nProcs : 1
trapFpe: Floating point exception trapping enabled (FOAM_SIGFPE).
fileModificationChecking : Monitoring run-time modified files using timeStampMaster (fileModificationSkew 5, maxFileModificationPolls 20)
allowSystemOperations : Allowing user-supplied system call operations

// * * * * * * * * * * * * * * * * * * * * * * * * * * * * * * * * * * * * * //
Create time

Create mesh for time = 0

Selecting dynamicFvMesh fastDynamicFvMesh
